iidm/iidm-serde/src/test/resources/V1_7/eurostag-tutorial-example1-anonymized.xml
<?xml version="1.0" encoding="UTF-8"?>
<iidm:network xmlns:iidm="http://www.powsybl.org/schema/iidm/1_7" id="sim1" caseDate="2013-01-15T18:45:00.000+01:00" forecastDistance="0" sourceFormat="test" minimumValidationLevel="STEADY_STATE_HYPOTHESIS">
    <iidm:substation id="A" country="FR" tso="B" geographicalTags="C">
        <iidm:voltageLevel id="D" nominalV="24.0" topologyKind="BUS_BREAKER">
            <iidm:busBreakerTopology>
                <iidm:bus id="E"/>
            </iidm:busBreakerTopology>
            <iidm:generator id="F" energySource="OTHER" minP="-9999.99" maxP="9999.99" voltageRegulatorOn="true" targetP="607.0" targetV="24.5" targetQ="301.0" bus="E" connectableBus="E">
                <iidm:minMaxReactiveLimits minQ="-9999.99" maxQ="9999.99"/>
            </iidm:generator>
        </iidm:voltageLevel>
        <iidm:voltageLevel id="G" nominalV="380.0" topologyKind="BUS_BREAKER">
            <iidm:busBreakerTopology>
                <iidm:bus id="H"/>
            </iidm:busBreakerTopology>
        </iidm:voltageLevel>
        <iidm:twoWindingsTransformer id="I" r="0.26658461538461536" x="11.104492831516762" g="0.0" b="0.0" ratedU1="24.0" ratedU2="400.0" bus1="E" connectableBus1="E" voltageLevelId1="D" bus2="H" connectableBus2="H" voltageLevelId2="G"/>
    </iidm:substation>
    <iidm:substation id="J" country="FR" tso="B" geographicalTags="K">
        <iidm:voltageLevel id="L" nominalV="380.0" topologyKind="BUS_BREAKER">
            <iidm:busBreakerTopology>
                <iidm:bus id="M"/>
            </iidm:busBreakerTopology>
        </iidm:voltageLevel>
        <iidm:voltageLevel id="N" nominalV="150.0" topologyKind="BUS_BREAKER">
            <iidm:busBreakerTopology>
                <iidm:bus id="O"/>
            </iidm:busBreakerTopology>
            <iidm:load id="P" loadType="UNDEFINED" p0="600.0" q0="200.0" bus="O" connectableBus="O"/>
        </iidm:voltageLevel>
        <iidm:twoWindingsTransformer id="Q" r="0.04724999999999999" x="4.049724365620455" g="0.0" b="0.0" ratedU1="400.0" ratedU2="158.0" bus1="M" connectableBus1="M" voltageLevelId1="L" bus2="O" connectableBus2="O" voltageLevelId2="N">
            <iidm:ratioTapChanger lowTapPosition="0" tapPosition="1" loadTapChangingCapabilities="true" regulating="true" targetV="158.0" targetDeadband="0.0">
                <iidm:terminalRef id="Q" side="TWO"/>
                <iidm:step r="0.0" x="0.0" g="0.0" b="0.0" rho="0.8505666905244191"/>
                <iidm:step r="0.0" x="0.0" g="0.0" b="0.0" rho="1.0006666666666666"/>
                <iidm:step r="0.0" x="0.0" g="0.0" b="0.0" rho="1.150766642808914"/>
            </iidm:ratioTapChanger>
        </iidm:twoWindingsTransformer>
    </iidm:substation>
    <iidm:line id="R" r="3.0" x="33.0" g1="0.0" b1="1.93E-4" g2="0.0" b2="1.93E-4" bus1="H" connectableBus1="H" voltageLevelId1="G" bus2="M" connectableBus2="M" voltageLevelId2="L"/>
    <iidm:line id="S" r="3.0" x="33.0" g1="0.0" b1="1.93E-4" g2="0.0" b2="1.93E-4" bus1="H" connectableBus1="H" voltageLevelId1="G" bus2="M" connectableBus2="M" voltageLevelId2="L"/>
</iidm:network>
